---- qbsp / ericw-tools v0.18.1 ----
Input file: Box.map
Output file: Box.bsp

---- LoadMapFile ----
*** WARNING 06: No info_player_deathmatch entities in level
           48 faces
            8 brushes
            6 entities
            3 unique texnames
           19 texinfo

Opened WAD: C:/Users/jaker/Desktop/QuakeDev/wads/id1.wad
Processing hull 0...
---- Brush_LoadEntity ----
            8 brushes
           19 planes
---- CSGFaces ----
           48 brushfaces
           54 csgfaces
           50 mergedfaces
---- SolidBSP ----
           81 split nodes
           26 solid leafs
           56 empty leafs
            0 water leafs
            0 detail leafs
            0 detail illusionary leafs
            0 detail fence leafs
            0 illusionary visblocker leafs
          104 leaffaces
          102 nodefaces
---- Portalize ----
           56 vis leafs
           56 vis clusters
          120 vis portals
---- FillOutside ----
           49 outleafs
---- MergeAll ----
           24 mergefaces
---- SolidBSP ----
           14 split nodes
           10 solid leafs
            5 empty leafs
            0 water leafs
            0 detail leafs
            0 detail illusionary leafs
            0 detail fence leafs
            0 illusionary visblocker leafs
           40 leaffaces
           30 nodefaces
---- Portalize ----
            5 vis leafs
            5 vis clusters
            6 vis portals
---- Tjunc ----
           36 world edges
          114 edge points
           32 edges added by tjunctions
            0 faces added by tjunctions
---- MakeFaceEdges ----
---- GrowRegions ----
Processing hull 1...
*** WARNING 19: No entities in empty space -- no filling performed (hull 1)
Processing hull 2...
*** WARNING 19: No entities in empty space -- no filling performed (hull 2)
---- WriteBSPFile ----
Wrote Box.bsp
           46 planes              920
           44 vertexes            528
           14 nodes               336
            7 texinfo             280
           30 faces               600
          162 clipnodes          1296
            6 leafs               168
           40 marksurfaces         80
          152 surfedges           608
           77 edges               308
            3 textures          13736
              lightdata             0
              visdata               0
              entdata             382

0.059 seconds elapsed
Peak memory usage: 541692 (0.5M)
